<?xml version="1.0" encoding="UTF-8"?>

<!-- generated on 03/31/20 14:05:41 by Eclipse SUMO netedit Version 1.3.1
<configuration xmlns:xsi="http://www.w3.org/2001/XMLSchema-instance" xsi:noNamespaceSchemaLocation="http://sumo.dlr.de/xsd/netconvertConfiguration.xsd">

    <input>
        <sumo-net-file value="F:\Eclipse\Sumo\usermodel\Platooning\Platooning.net.xml"/>
    </input>

    <output>
        <output-file value="F:\Eclipse\Sumo\usermodel\Platooning\Platooning.net.xml"/>
    </output>

    <processing>
        <geometry.max-grade.fix value="false"/>
        <offset.disable-normalization value="true"/>
        <opposites.guess.fix-lengths value="true"/>
        <lefthand value="false"/>
    </processing>

    <junctions>
        <no-turnarounds value="true"/>
        <junctions.corner-detail value="5"/>
        <junctions.limit-turn-speed value="5.5"/>
        <rectangular-lane-cut value="false"/>
    </junctions>

    <pedestrian>
        <walkingareas value="false"/>
    </pedestrian>

</configuration>
-->

<net version="1.3" junctionCornerDetail="5" limitTurnSpeed="5.50" xmlns:xsi="http://www.w3.org/2001/XMLSchema-instance" xsi:noNamespaceSchemaLocation="http://sumo.dlr.de/xsd/net_file.xsd">

    <location netOffset="0.00,0.00" convBoundary="0.00,-400.00,400.00,50.00" origBoundary="-10000000000.00,-10000000000.00,10000000000.00,10000000000.00" projParameter="!"/>

    <edge id=":N0_0" function="internal">
        <lane id=":N0_0_0" index="0" speed="6.51" length="9.03" shape="198.40,7.20 198.05,4.75 197.00,3.00 195.25,1.95 192.80,1.60"/>
    </edge>
    <edge id=":N0_1" function="internal">
        <lane id=":N0_1_0" index="0" speed="13.89" length="14.40" shape="198.40,7.20 198.40,-7.20"/>
    </edge>
    <edge id=":N0_2" function="internal">
        <lane id=":N0_2_0" index="0" speed="8.00" length="5.93" shape="198.40,7.20 198.95,3.35 200.00,1.60"/>
    </edge>
    <edge id=":N0_12" function="internal">
        <lane id=":N0_12_0" index="0" speed="8.00" length="8.26" shape="200.00,1.60 200.60,0.60 203.35,-1.05 207.20,-1.60"/>
    </edge>
    <edge id=":N0_3" function="internal">
        <lane id=":N0_3_0" index="0" speed="6.51" length="9.03" shape="207.20,1.60 204.75,1.95 203.00,3.00 201.95,4.75 201.60,7.20"/>
    </edge>
    <edge id=":N0_4" function="internal">
        <lane id=":N0_4_0" index="0" speed="13.89" length="14.40" shape="207.20,1.60 192.80,1.60"/>
    </edge>
    <edge id=":N0_5" function="internal">
        <lane id=":N0_5_0" index="0" speed="8.00" length="14.19" shape="207.20,1.60 203.35,1.05 200.60,-0.60 198.95,-3.35 198.40,-7.20"/>
    </edge>
    <edge id=":N0_6" function="internal">
        <lane id=":N0_6_0" index="0" speed="6.51" length="9.03" shape="201.60,-7.20 201.95,-4.75 203.00,-3.00 204.75,-1.95 207.20,-1.60"/>
    </edge>
    <edge id=":N0_7" function="internal">
        <lane id=":N0_7_0" index="0" speed="13.89" length="14.40" shape="201.60,-7.20 201.60,7.20"/>
    </edge>
    <edge id=":N0_8" function="internal">
        <lane id=":N0_8_0" index="0" speed="8.00" length="5.93" shape="201.60,-7.20 201.05,-3.35 200.00,-1.60"/>
    </edge>
    <edge id=":N0_13" function="internal">
        <lane id=":N0_13_0" index="0" speed="8.00" length="8.26" shape="200.00,-1.60 199.40,-0.60 196.65,1.05 192.80,1.60"/>
    </edge>
    <edge id=":N0_9" function="internal">
        <lane id=":N0_9_0" index="0" speed="6.51" length="9.03" shape="192.80,-1.60 195.25,-1.95 197.00,-3.00 198.05,-4.75 198.40,-7.20"/>
    </edge>
    <edge id=":N0_10" function="internal">
        <lane id=":N0_10_0" index="0" speed="13.89" length="14.40" shape="192.80,-1.60 207.20,-1.60"/>
    </edge>
    <edge id=":N0_11" function="internal">
        <lane id=":N0_11_0" index="0" speed="8.00" length="14.19" shape="192.80,-1.60 196.65,-1.05 199.40,0.60 201.05,3.35 201.60,7.20"/>
    </edge>

    <edge id="L1" from="N0" to="N1" priority="-1">
        <lane id="L1_0" index="0" speed="13.89" length="192.80" shape="192.80,1.60 0.00,1.60"/>
    </edge>
    <edge id="L2" from="N1" to="N0" priority="-1">
        <lane id="L2_0" index="0" speed="13.89" length="192.80" shape="0.00,-1.60 192.80,-1.60"/>
    </edge>
    <edge id="L3" from="N2" to="N0" priority="-1">
        <lane id="L3_0" index="0" speed="13.89" length="42.80" shape="198.40,50.00 198.40,7.20"/>
    </edge>
    <edge id="L4" from="N0" to="N2" priority="-1">
        <lane id="L4_0" index="0" speed="13.89" length="42.80" shape="201.60,7.20 201.60,50.00"/>
    </edge>
    <edge id="L5" from="N3" to="N0" priority="-1">
        <lane id="L5_0" index="0" speed="13.89" length="192.80" shape="400.00,1.60 207.20,1.60"/>
    </edge>
    <edge id="L6" from="N0" to="N3" priority="-1">
        <lane id="L6_0" index="0" speed="13.89" length="192.80" shape="207.20,-1.60 400.00,-1.60"/>
    </edge>
    <edge id="L7" from="N4" to="N0" priority="-1">
        <lane id="L7_0" index="0" speed="13.89" length="392.80" shape="201.60,-400.00 201.60,-7.20"/>
    </edge>
    <edge id="L8" from="N0" to="N4" priority="-1">
        <lane id="L8_0" index="0" speed="13.89" length="392.80" shape="198.40,-7.20 198.40,-400.00"/>
    </edge>

    <junction id="N0" type="priority" x="200.00" y="0.00" incLanes="L3_0 L5_0 L7_0 L2_0" intLanes=":N0_0_0 :N0_1_0 :N0_12_0 :N0_3_0 :N0_4_0 :N0_5_0 :N0_6_0 :N0_7_0 :N0_13_0 :N0_9_0 :N0_10_0 :N0_11_0" shape="196.80,7.20 203.20,7.20 203.64,4.98 204.20,4.20 204.98,3.64 205.98,3.31 207.20,3.20 207.20,-3.20 204.98,-3.64 204.20,-4.20 203.64,-4.98 203.31,-5.98 203.20,-7.20 196.80,-7.20 196.36,-4.98 195.80,-4.20 195.02,-3.64 194.02,-3.31 192.80,-3.20 192.80,3.20 195.02,3.64 195.80,4.20 196.36,4.98 196.69,5.98">
        <request index="0"  response="000000000000" foes="000100010000" cont="0"/>
        <request index="1"  response="000000000000" foes="111100110000" cont="0"/>
        <request index="2"  response="000011000000" foes="110011110000" cont="1"/>
        <request index="3"  response="000010000000" foes="100010000000" cont="0"/>
        <request index="4"  response="000110000111" foes="100110000111" cont="0"/>
        <request index="5"  response="011110000110" foes="011110000110" cont="0"/>
        <request index="6"  response="000000000000" foes="010000000100" cont="0"/>
        <request index="7"  response="000000000000" foes="110000111100" cont="0"/>
        <request index="8"  response="000000000011" foes="110000110011" cont="1"/>
        <request index="9"  response="000000000010" foes="000000100010" cont="0"/>
        <request index="10" response="000111000110" foes="000111100110" cont="0"/>
        <request index="11" response="000110011110" foes="000110011110" cont="0"/>
    </junction>
    <junction id="N1" type="dead_end" x="0.00" y="0.00" incLanes="L1_0" intLanes="" shape="0.00,0.00 0.00,3.20 0.00,0.00"/>
    <junction id="N2" type="dead_end" x="200.00" y="50.00" incLanes="L4_0" intLanes="" shape="200.00,50.00 203.20,50.00 200.00,50.00"/>
    <junction id="N3" type="dead_end" x="400.00" y="0.00" incLanes="L6_0" intLanes="" shape="400.00,0.00 400.00,-3.20 400.00,0.00"/>
    <junction id="N4" type="dead_end" x="200.00" y="-400.00" incLanes="L8_0" intLanes="" shape="200.00,-400.00 196.80,-400.00 200.00,-400.00"/>

    <junction id=":N0_12_0" type="internal" x="200.00" y="1.60" incLanes=":N0_2_0 L7_0" intLanes=":N0_4_0 :N0_5_0 :N0_6_0 :N0_7_0 :N0_10_0 :N0_11_0"/>
    <junction id=":N0_13_0" type="internal" x="200.00" y="-1.60" incLanes=":N0_8_0 L3_0" intLanes=":N0_0_0 :N0_1_0 :N0_4_0 :N0_5_0 :N0_10_0 :N0_11_0"/>

    <connection from="L2" to="L8" fromLane="0" toLane="0" via=":N0_9_0" dir="r" state="m"/>
    <connection from="L2" to="L6" fromLane="0" toLane="0" via=":N0_10_0" dir="s" state="m"/>
    <connection from="L2" to="L4" fromLane="0" toLane="0" via=":N0_11_0" dir="l" state="m"/>
    <connection from="L3" to="L1" fromLane="0" toLane="0" via=":N0_0_0" dir="r" state="M"/>
    <connection from="L3" to="L8" fromLane="0" toLane="0" via=":N0_1_0" dir="s" state="M"/>
    <connection from="L3" to="L6" fromLane="0" toLane="0" via=":N0_2_0" dir="l" state="m"/>
    <connection from="L5" to="L4" fromLane="0" toLane="0" via=":N0_3_0" dir="r" state="m"/>
    <connection from="L5" to="L1" fromLane="0" toLane="0" via=":N0_4_0" dir="s" state="m"/>
    <connection from="L5" to="L8" fromLane="0" toLane="0" via=":N0_5_0" dir="l" state="m"/>
    <connection from="L7" to="L6" fromLane="0" toLane="0" via=":N0_6_0" dir="r" state="M"/>
    <connection from="L7" to="L4" fromLane="0" toLane="0" via=":N0_7_0" dir="s" state="M"/>
    <connection from="L7" to="L1" fromLane="0" toLane="0" via=":N0_8_0" dir="l" state="m"/>

    <connection from=":N0_0" to="L1" fromLane="0" toLane="0" dir="r" state="M"/>
    <connection from=":N0_1" to="L8" fromLane="0" toLane="0" dir="s" state="M"/>
    <connection from=":N0_2" to="L6" fromLane="0" toLane="0" via=":N0_12_0" dir="l" state="m"/>
    <connection from=":N0_12" to="L6" fromLane="0" toLane="0" dir="l" state="M"/>
    <connection from=":N0_3" to="L4" fromLane="0" toLane="0" dir="r" state="M"/>
    <connection from=":N0_4" to="L1" fromLane="0" toLane="0" dir="s" state="M"/>
    <connection from=":N0_5" to="L8" fromLane="0" toLane="0" dir="l" state="M"/>
    <connection from=":N0_6" to="L6" fromLane="0" toLane="0" dir="r" state="M"/>
    <connection from=":N0_7" to="L4" fromLane="0" toLane="0" dir="s" state="M"/>
    <connection from=":N0_8" to="L1" fromLane="0" toLane="0" via=":N0_13_0" dir="l" state="m"/>
    <connection from=":N0_13" to="L1" fromLane="0" toLane="0" dir="l" state="M"/>
    <connection from=":N0_9" to="L8" fromLane="0" toLane="0" dir="r" state="M"/>
    <connection from=":N0_10" to="L6" fromLane="0" toLane="0" dir="s" state="M"/>
    <connection from=":N0_11" to="L4" fromLane="0" toLane="0" dir="l" state="M"/>

</net>
